test/data/dist/ieee123/ieee123_no_regs_no_sw_Curr_Elem.Txt

CIRCUIT ELEMENT CURRENTS

(Currents into element from indicated bus)

Power Delivery Elements

  Bus     Phase    Magnitude, A     Angle      (Real)   +j  (Imag)

ELEMENT = "Vsource.SOURCE"
SOURCEBUS     1           117.88 /_   98.4 =    -17.213 +j    116.62
SOURCEBUS     2           17.136 /_   41.4 =     12.845 +j    11.343
SOURCEBUS     3           128.04 /_  -88.0 =      4.368 +j   -127.96
------------
SOURCEBUS     0           117.88 /_  -81.6 =     17.213 +j   -116.62
SOURCEBUS     0           17.136 /_ -138.6 =    -12.845 +j   -11.343
SOURCEBUS     0           128.04 /_   92.0 =     -4.368 +j    127.96

ELEMENT = "Transformer.SUB"
SOURCEBUS     1           117.88 /_  -81.6 =     17.213 +j   -116.62
SOURCEBUS     2           17.136 /_ -138.6 =    -12.845 +j   -11.343
SOURCEBUS     3           128.04 /_   92.0 =     -4.368 +j    127.96
SOURCEBUS     0                0 /_    0.0 =          0 +j         0
------------
150           1           5262.4 /_   94.1 =    -371.99 +j    5249.3
150           2           398.49 /_    7.9 =     394.68 +j    54.956
150           3           483.97 /_ -111.5 =    -177.44 +j   -450.27
150           0           4856.4 /_  -88.2 =     154.75 +j     -4854

ELEMENT = "Line.L115"
150           1           5262.4 /_  -85.9 =     371.99 +j   -5249.3
150           2           398.49 /_ -172.1 =    -394.68 +j   -54.956
150           3           483.97 /_   68.5 =     177.44 +j    450.27
------------
1             1           5262.4 /_   94.1 =    -371.99 +j    5249.3
1             2           398.49 /_    7.9 =     394.68 +j    54.955
1             3           483.97 /_ -111.5 =    -177.44 +j   -450.27

ELEMENT = "Line.L1"
1             2           9.2955 /_  177.8 =    -9.2888 +j   0.35262
------------
2             2           9.2957 /_   -2.2 =      9.289 +j  -0.35298

ELEMENT = "Line.L2"
1             3           46.752 /_   62.8 =     21.375 +j     41.58
------------
3             3           46.752 /_ -117.2 =    -21.376 +j    -41.58

ELEMENT = "Line.L3"
1             1           249.53 /_ -100.3 =    -44.536 +j   -245.53
1             2           389.34 /_ -171.8 =    -385.39 +j   -55.308
1             3           437.47 /_   69.1 =     156.06 +j    408.69
------------
7             1           249.53 /_   79.7 =     44.536 +j    245.53
7             2           389.34 /_    8.2 =     385.39 +j    55.307
7             3           437.47 /_ -110.9 =    -156.06 +j   -408.69

ELEMENT = "Line.L4"
3             3           17.807 /_   62.8 =     8.1378 +j    15.839
------------
4             3           17.807 /_ -117.2 =    -8.1382 +j   -15.839

ELEMENT = "Line.L5"
3             3           28.945 /_   62.8 =     13.238 +j    25.741
------------
5             3           28.946 /_ -117.2 =    -13.239 +j   -25.741

ELEMENT = "Line.L6"
5             3           19.604 /_   62.8 =     8.9675 +j    17.433
------------
6             3           19.604 /_ -117.2 =     -8.968 +j   -17.433

ELEMENT = "Line.L7"
7             1           245.78 /_ -100.1 =    -43.101 +j   -241.97
7             2           389.34 /_ -171.8 =    -385.39 +j   -55.307
7             3           437.47 /_   69.1 =     156.06 +j    408.69
------------
8             1           245.78 /_   79.9 =     43.101 +j    241.97
8             2           389.34 /_    8.2 =     385.39 +j    55.306
8             3           437.47 /_ -110.9 =    -156.07 +j   -408.69

ELEMENT = "Line.L8"
8             2           9.1989 /_  177.3 =    -9.1885 +j   0.43673
------------
12            2           9.1991 /_   -2.7 =     9.1887 +j  -0.43719

ELEMENT = "Line.L9"
8             1           18.963 /_ -112.1 =    -7.1452 +j   -17.565
------------
9             1           18.963 /_   67.9 =     7.1454 +j    17.566

ELEMENT = "Line.L10"
8             1           227.27 /_  -99.1 =    -35.956 +j    -224.4
8             2           380.31 /_ -171.6 =    -376.21 +j   -55.743
8             3           437.47 /_   69.1 =     156.07 +j    408.69
------------
13            1           227.27 /_   80.9 =     35.956 +j     224.4
13            2           380.31 /_    8.4 =     376.21 +j    55.742
13            3           437.47 /_ -110.9 =    -156.07 +j   -408.69

ELEMENT = "Line.L11"
9             1           11.368 /_ -112.2 =    -4.2863 +j   -10.529
------------
14            1           11.368 /_   67.8 =     4.2867 +j    10.529

ELEMENT = "Line.L12"
13            3           46.239 /_   61.7 =     21.904 +j    40.721
------------
34            3           46.239 /_ -118.3 =    -21.905 +j   -40.721

ELEMENT = "Line.L13"
13            1            87.33 /_ -110.5 =    -30.615 +j   -81.787
13            2           154.57 /_  170.4 =     -152.4 +j     25.81
13            3           151.44 /_   57.5 =     81.386 +j    127.71
------------
18            1           87.331 /_   69.5 =     30.617 +j    81.788
18            2           154.57 /_   -9.6 =      152.4 +j   -25.812
18            3           151.44 /_ -122.5 =    -81.389 +j   -127.71

ELEMENT = "Line.L14"
14            1           7.5777 /_ -112.2 =    -2.8578 +j   -7.0182
------------
11            1           7.5778 /_   67.8 =      2.858 +j    7.0182

ELEMENT = "Line.L15"
14            1           3.7901 /_ -112.1 =    -1.4289 +j   -3.5104
------------
10            1           3.7902 /_   67.8 =     1.4291 +j    3.5104

ELEMENT = "Line.L16"
15            3           17.825 /_   61.7 =     8.4472 +j    15.696
------------
16            3           17.825 /_ -118.3 =     -8.448 +j   -15.696

ELEMENT = "Line.L17"
15            3           8.9078 /_   61.7 =     4.2199 +j    7.8448
------------
17            3           8.9082 /_ -118.3 =    -4.2207 +j   -7.8448

ELEMENT = "Line.L18"
18            1           14.827 /_ -112.1 =    -5.5724 +j    -13.74
------------
19            1           14.827 /_   67.9 =     5.5726 +j     13.74

ELEMENT = "Line.L19"
18            1           22.249 /_ -112.0 =    -8.3506 +j   -20.622
18            2           19.948 /_  176.7 =    -19.915 +j    1.1484
18            3           53.714 /_   61.3 =      25.81 +j    47.107
------------
21            1           22.249 /_   68.0 =     8.3511 +j    20.623
21            2           19.949 /_   -3.3 =     19.916 +j   -1.1491
21            3           53.715 /_ -118.7 =    -25.811 +j   -47.107

ELEMENT = "Line.L20"
19            1           7.4102 /_ -112.1 =     -2.786 +j   -6.8666
------------
20            1           7.4103 /_   67.9 =     2.7862 +j    6.8666

ELEMENT = "Line.L21"
21            2           19.951 /_  176.7 =    -19.918 +j     1.153
------------
22            2           19.951 /_   -3.3 =     19.918 +j    -1.154

ELEMENT = "Line.L22"
21            1           22.249 /_ -112.0 =    -8.3511 +j   -20.623
21            2        0.0042622 /_  -64.6 =  0.0018276 +j -0.0038504
21            3           53.715 /_   61.3 =     25.811 +j    47.107
------------
23            1            22.25 /_   68.0 =     8.3515 +j    20.623
23            2        0.0035856 /_  115.4 =  -0.0015376 +j 0.0032392
23            3           53.715 /_ -118.7 =    -25.812 +j   -47.107

ELEMENT = "Line.L23"
23            3           17.903 /_   61.3 =     8.5989 +j    15.703
------------
24            3           17.904 /_ -118.7 =       -8.6 +j   -15.703

ELEMENT = "Line.L24"
23            1            22.25 /_ -112.0 =    -8.3515 +j   -20.623
23            2        0.0035856 /_  -64.6 =  0.0015376 +j -0.0032392
23            3           35.812 /_   61.3 =     17.213 +j    31.403
------------
25            1            22.25 /_   68.0 =      8.352 +j    20.623
25            2        0.0028414 /_  115.4 =  -0.0012185 +j 0.0025669
25            3           35.812 /_ -118.7 =    -17.214 +j   -31.403

ELEMENT = "Line.L25"
25            1           7.4093 /_ -112.1 =     -2.784 +j   -6.8663
25            3           17.908 /_   61.3 =     8.6069 +j    15.704
------------
26            1           7.4095 /_   67.9 =     2.7845 +j    6.8663
26            3           17.908 /_ -118.7 =    -8.6078 +j   -15.704

ELEMENT = "Line.L26"
25            1           14.841 /_ -112.0 =    -5.5679 +j   -13.757
25            2        0.0028414 /_  -64.6 =  0.0012185 +j -0.0025669
25            3           17.904 /_   61.3 =     8.6073 +j      15.7
------------
28            1           14.841 /_   68.0 =     5.5683 +j    13.757
28            2        0.0023002 /_  115.4 =  -0.00098642 +j  0.002078
28            3           17.904 /_ -118.7 =    -8.6079 +j   -15.699

ELEMENT = "Line.L27"
26            1           7.4095 /_ -112.1 =    -2.7845 +j   -6.8663
26            3       0.00072522 /_  178.3 =  -0.00072491 +j 2.1155E-005
------------
27            1           7.4096 /_   67.9 =     2.7849 +j    6.8663
27            3       3.638E-012 /_   90.0 =          0 +j 3.638E-012

ELEMENT = "Line.L28"
26            3           17.908 /_   61.3 =     8.6085 +j    15.704
------------
31            3           17.909 /_ -118.7 =     -8.609 +j   -15.704

ELEMENT = "Line.L29"
27            1           7.4096 /_ -112.1 =    -2.7849 +j   -6.8663
------------
33            1           7.4098 /_   67.9 =     2.7853 +j    6.8664

ELEMENT = "Line.L30"
28            1           7.4201 /_ -112.0 =    -2.7833 +j   -6.8783
28            2        0.0023002 /_  -64.6 =  0.00098642 +j -0.002078
28            3           17.904 /_   61.3 =     8.6079 +j    15.699
------------
29            1           7.4204 /_   68.0 =     2.7839 +j    6.8784
29            2        0.0014884 /_  115.4 =  -0.0006383 +j 0.0013445
29            3           17.905 /_ -118.7 =    -8.6089 +j   -15.699

ELEMENT = "Line.L31"
29            1       0.00099795 /_   18.4 =  0.00094669 +j 0.00031573
29            2        0.0014884 /_  -64.6 =  0.0006383 +j -0.0013445
29            3           17.905 /_   61.3 =     8.6089 +j    15.699
------------
30            1        0.0003629 /_ -161.6 =  -0.00034425 +j -0.00011482
30            2       0.00054122 /_  115.4 =  -0.00023212 +j 0.00048892
30            3           17.905 /_ -118.7 =      -8.61 +j   -15.699

ELEMENT = "Line.L32"
30            1        0.0003629 /_   18.4 =  0.00034425 +j 0.00011482
30            2       0.00054122 /_  -64.6 =  0.00023212 +j -0.00048892
30            3       0.00063455 /_  173.0 =  -0.00062978 +j 7.765E-005
------------
250           1                0 /_    0.0 =          0 +j         0
250           2      2.7721E-011 /_ -131.0 =  -1.819E-011 +j -2.0918E-011
250           3       1.819E-011 /_   36.9 =  1.4552E-011 +j 1.0914E-011

ELEMENT = "Line.L33"
31            3           8.9558 /_   61.3 =     4.3055 +j     7.853
------------
32            3           8.9561 /_ -118.7 =    -4.3061 +j    -7.853

ELEMENT = "Line.L34"
34            3           26.732 /_   61.7 =     12.667 +j    23.541
------------
15            3           26.732 /_ -118.3 =    -12.667 +j   -23.541

ELEMENT = "Line.L35"
35            1           7.3759 /_ -112.0 =    -2.7632 +j   -6.8387
35            2           18.485 /_  176.6 =    -18.452 +j    1.1036
------------
36            1           7.3764 /_   68.0 =     2.7637 +j    6.8391
36            2           18.485 /_   -3.4 =     18.452 +j   -1.1051

ELEMENT = "Line.L36"
35            1           42.702 /_ -117.6 =    -19.816 +j   -37.826
35            2           110.13 /_  169.1 =    -108.15 +j      20.8
35            3           97.909 /_   55.4 =      55.58 +j    80.604
------------
40            1           42.702 /_   62.4 =     19.816 +j    37.826
40            2           110.13 /_  -10.9 =     108.15 +j   -20.801
40            3           97.909 /_ -124.6 =     -55.58 +j   -80.604

ELEMENT = "Line.L37"
36            1           7.3764 /_ -112.0 =    -2.7637 +j   -6.8391
------------
37            1           7.3765 /_   68.0 =     2.7639 +j    6.8391

ELEMENT = "Line.L38"
36            2           18.485 /_  176.6 =    -18.452 +j    1.1051
------------
38            2           18.485 /_   -3.4 =     18.452 +j   -1.1056

ELEMENT = "Line.L39"
38            2           9.0154 /_  176.6 =    -8.9992 +j    0.5395
------------
39            2           9.0157 /_   -3.4 =     8.9995 +j  -0.54016

ELEMENT = "Line.L40"
40            3           8.9403 /_   61.2 =     4.3095 +j    7.8331
------------
41            3           8.9407 /_ -118.8 =    -4.3102 +j   -7.8331

ELEMENT = "Line.L41"
40            1           42.702 /_ -117.6 =    -19.816 +j   -37.826
40            2           110.13 /_  169.1 =    -108.15 +j    20.801
40            3           89.018 /_   54.8 =     51.271 +j    72.771
------------
42            1           42.703 /_   62.4 =     19.816 +j    37.826
42            2           110.13 /_  -10.9 =     108.15 +j   -20.801
42            3           89.019 /_ -125.2 =    -51.272 +j   -72.771

ELEMENT = "Line.L42"
42            2           19.809 /_  176.5 =    -19.772 +j     1.206
------------
43            2           19.809 /_   -3.5 =     19.772 +j    -1.207

ELEMENT = "Line.L43"
42            1           39.046 /_ -118.2 =    -18.448 +j   -34.414
42            2           90.524 /_  167.5 =    -88.377 +j    19.595
42            3           89.019 /_   54.8 =     51.272 +j    72.771
------------
44            1           39.047 /_   61.8 =     18.448 +j    34.414
44            2           90.524 /_  -12.5 =     88.378 +j   -19.596
44            3           89.019 /_ -125.2 =    -51.272 +j   -72.771

ELEMENT = "Line.L44"
44            1           7.3353 /_ -111.8 =    -2.7267 +j   -6.8097
------------
45            1           7.3354 /_   68.2 =     2.7269 +j    6.8097

ELEMENT = "Line.L45"
44            1           31.767 /_ -119.7 =    -15.721 +j   -27.604
44            2           90.524 /_  167.5 =    -88.378 +j    19.596
44            3           89.019 /_   54.8 =     51.272 +j    72.771
------------
47            1           31.767 /_   60.3 =     15.721 +j    27.604
47            2           90.524 /_  -12.5 =     88.378 +j   -19.596
47            3           89.019 /_ -125.2 =    -51.273 +j    -72.77

ELEMENT = "Line.L46"
45            1           3.6669 /_ -111.8 =    -1.3633 +j   -3.4041
------------
46            1            3.667 /_   68.2 =     1.3635 +j    3.4041

ELEMENT = "Line.L47"
47            1           14.067 /_ -120.7 =     -7.181 +j   -12.096
47            2           37.964 /_  167.5 =    -37.064 +j    8.2194
47            3           37.238 /_   52.0 =     22.933 +j    29.338
------------
48            1           14.067 /_   59.3 =     7.1813 +j    12.096
48            2           37.965 /_  -12.5 =     37.064 +j   -8.2198
48            3           37.238 /_ -128.0 =    -22.934 +j   -29.338

ELEMENT = "Line.L48"
47            1           10.674 /_ -117.6 =    -4.9467 +j   -9.4591
47            2           34.474 /_  167.5 =    -33.656 +j    7.4628
47            3            34.05 /_   59.4 =     17.315 +j    29.319
------------
49            1           10.675 /_   62.4 =     4.9471 +j     9.459
49            2           34.474 /_  -12.5 =     33.657 +j   -7.4635
49            3            34.05 /_ -120.6 =    -17.315 +j   -29.319

ELEMENT = "Line.L49"
49            1           3.6612 /_ -111.7 =    -1.3531 +j    -3.402
49            2        0.0034625 /_  -50.5 =  0.0022007 +j -0.0026732
49            3           17.917 /_   60.9 =     8.7027 +j    15.661
------------
50            1           3.6613 /_   68.3 =     1.3535 +j    3.4019
50            2        0.0025969 /_  129.5 =  -0.0016505 +j 0.0020049
50            3           17.917 /_ -119.1 =    -8.7035 +j   -15.661

ELEMENT = "Line.L50"
50            1           3.6613 /_ -111.7 =    -1.3535 +j   -3.4019
50            2        0.0025969 /_  -50.5 =  0.0016505 +j -0.0020049
50            3        0.0024617 /_  163.7 =  -0.0023632 +j 0.00068946
------------
51            1           3.6613 /_   68.3 =     1.3539 +j    3.4018
51            2        0.0017312 /_  129.5 =  -0.0011003 +j 0.0013366
51            3        0.0016412 /_  -16.3 =  0.0015755 +j -0.00045964

ELEMENT = "Line.L51"
51            1       0.00078774 /_  -16.6 =  0.00075501 +j -0.00022472
51            2        0.0017312 /_  -50.5 =  0.0011003 +j -0.0013366
51            3        0.0016412 /_  163.7 =  -0.0015755 +j 0.00045964
------------
151           1      3.9709E-012 /_  103.2 =  -9.0949E-013 +j 3.8654E-012
151           2      5.7521E-012 /_  -18.4 =  5.457E-012 +j -1.819E-012
151           3       3.638E-012 /_  180.0 =  -3.638E-012 +j         0

ELEMENT = "Line.L52"
52            1           135.78 /_  -91.1 =    -2.4979 +j   -135.76
52            2            238.2 /_ -160.0 =    -223.81 +j   -81.551
52            3           245.98 /_   77.6 =     52.777 +j    240.26
------------
53            1           135.78 /_   88.9 =     2.4981 +j    135.76
53            2            238.2 /_   20.0 =     223.81 +j     81.55
53            3           245.98 /_ -102.4 =    -52.777 +j   -240.26

ELEMENT = "Line.L53"
53            1           128.94 /_  -89.8 =    0.34524 +j   -128.94
53            2            238.2 /_ -160.0 =    -223.81 +j    -81.55
53            3           245.98 /_   77.6 =     52.777 +j    240.26
------------
54            1           128.94 /_   90.2 =   -0.34511 +j    128.94
54            2            238.2 /_   20.0 =     223.81 +j     81.55
54            3           245.98 /_ -102.4 =    -52.778 +j   -240.26

ELEMENT = "Line.L54"
54            1           3.6782 /_ -112.7 =    -1.4205 +j   -3.3929
54            2           9.0771 /_  176.4 =    -9.0587 +j   0.57718
54            3        0.0016365 /_  168.0 =  -0.001601 +j 0.00033887
------------
55            1           3.6786 /_   67.3 =     1.4208 +j    3.3931
55            2           9.0775 /_   -3.7 =     9.0591 +j  -0.57794
55            3       0.00081824 /_  -12.0 =  0.00080051 +j -0.00016944

ELEMENT = "Line.L55"
54            1           125.56 /_  -89.2 =     1.7656 +j   -125.55
54            2           229.92 /_ -159.1 =    -214.75 +j   -82.127
54            3           245.98 /_   77.6 =     52.779 +j    240.26
------------
57            1           125.56 /_   90.8 =    -1.7651 +j    125.55
57            2           229.92 /_   20.9 =     214.75 +j    82.126
57            3           245.98 /_ -102.4 =    -52.781 +j   -240.26

ELEMENT = "Line.L56"
55            1       0.00036615 /_   41.3 =  0.00027496 +j 0.00024179
55            2           9.0775 /_  176.3 =    -9.0591 +j   0.57794
55            3       0.00081824 /_  168.0 =  -0.00080051 +j 0.00016944
------------
56            1      5.7521E-012 /_   71.6 =  1.819E-012 +j 5.457E-012
56            2           9.0779 /_   -3.7 =     9.0595 +j  -0.57869
56            3       1.029E-011 /_  -45.0 =  7.276E-012 +j -7.276E-012

ELEMENT = "Line.L57"
57            2           18.527 /_  176.1 =    -18.484 +j    1.2639
------------
58            2           18.527 /_   -3.9 =     18.484 +j   -1.2644

ELEMENT = "Line.L58"
57            1           125.56 /_  -89.2 =     1.7651 +j   -125.55
57            2           213.25 /_ -157.0 =    -196.27 +j    -83.39
57            3           245.98 /_   77.6 =     52.781 +j    240.26
------------
60            1           125.56 /_   90.8 =    -1.7641 +j    125.55
60            2           213.25 /_   23.0 =     196.27 +j    83.388
60            3           245.98 /_ -102.4 =    -52.783 +j   -240.25

ELEMENT = "Line.L59"
58            2           9.0362 /_  176.1 =    -9.0151 +j    0.6169
------------
59            2           9.0365 /_   -3.9 =     9.0153 +j  -0.61741

ELEMENT = "Line.L60"
60            1        0.0008409 /_   33.9 =  0.0006982 +j 0.00046864
60            2        0.0015278 /_  -68.0 =  0.00057297 +j -0.0014163
60            3        0.0016067 /_  171.4 =  -0.0015887 +j 0.00023963
------------
61            1      1.0168E-012 /_   26.6 =  9.0949E-013 +j 4.5475E-013
61            2      2.2737E-012 /_  143.1 =  -1.819E-012 +j 1.3642E-012
61            3       3.638E-012 /_    0.0 =  3.638E-012 +j         0

ELEMENT = "Line.L61"
60            1           24.931 /_ -108.8 =    -8.0472 +j   -23.597
60            2           49.631 /_  178.1 =    -49.602 +j    1.6866
60            3           77.841 /_   54.3 =      45.38 +j    63.245
------------
62            1           24.932 /_   71.2 =     8.0501 +j    23.597
62            2           49.634 /_   -2.0 =     49.605 +j   -1.6941
62            3           77.845 /_ -125.7 =    -45.388 +j   -63.244

ELEMENT = "Line.L62"
62            1           24.932 /_ -108.8 =    -8.0501 +j   -23.597
62            2           49.634 /_  178.0 =    -49.605 +j    1.6941
62            3           58.578 /_   52.3 =     35.797 +j    46.368
------------
63            1           24.933 /_   71.2 =     8.0522 +j    23.597
63            2           49.637 /_   -2.0 =     49.608 +j   -1.6994
63            3           58.582 /_ -127.7 =    -35.803 +j   -46.368

ELEMENT = "Line.L63"
63            1           17.755 /_ -107.1 =    -5.2229 +j   -16.969
63            2           49.637 /_  178.0 =    -49.608 +j    1.6994
63            3           58.582 /_   52.3 =     35.803 +j    46.368
------------
64            1           17.756 /_   72.9 =      5.227 +j     16.97
64            2           49.641 /_   -2.0 =     49.612 +j   -1.7098
64            3           58.588 /_ -127.7 =    -35.814 +j   -46.367

ELEMENT = "Line.L64"
64            1           17.756 /_ -107.1 =     -5.227 +j    -16.97
64            2           14.903 /_  180.0 =    -14.903 +j 0.0043549
64            3           58.588 /_   52.3 =     35.814 +j    46.367
------------
65            1           17.758 /_   72.9 =      5.232 +j     16.97
65            2           14.908 /_   -0.1 =     14.908 +j -0.017073
65            3           58.596 /_ -127.7 =    -35.827 +j   -46.366

ELEMENT = "Line.L65"
65            1        0.0038385 /_    3.5 =  0.0038315 +j 0.00023307
65            2         0.010505 /_  -67.8 =  0.0039777 +j -0.0097233
65            3            33.34 /_   61.9 =     15.679 +j    29.423
------------
66            1       1.875E-012 /_  104.0 =  -4.5475E-013 +j 1.819E-012
66            2      5.3032E-012 /_   59.0 =  2.7285E-012 +j 4.5475E-012
66            3           33.344 /_ -118.1 =     -15.69 +j   -29.422

ELEMENT = "Line.L66"
67            1           21.453 /_ -113.4 =    -8.5138 +j   -19.692
------------
68            1           21.454 /_   66.6 =     8.5139 +j    19.692

ELEMENT = "Line.L67"
67            1           59.296 /_  -56.8 =     32.478 +j   -49.611
67            2           129.28 /_ -136.2 =     -93.29 +j   -89.496
67            3            123.8 /_  101.5 =    -24.619 +j    121.32
------------
72            1           59.296 /_  123.2 =    -32.477 +j    49.611
72            2           129.28 /_   43.8 =      93.29 +j    89.496
72            3            123.8 /_  -78.5 =     24.618 +j   -121.32

ELEMENT = "Line.L68"
67            1           31.978 /_ -113.5 =    -12.733 +j   -29.333
67            2           53.559 /_  175.3 =    -53.376 +j     4.424
67            3           64.237 /_   60.1 =     32.025 +j    55.685
------------
97            1           31.978 /_   66.5 =     12.734 +j    29.333
97            2            53.56 /_   -4.7 =     53.377 +j   -4.4246
97            3           64.238 /_ -119.9 =    -32.026 +j   -55.685

ELEMENT = "Line.L69"
68            1           17.869 /_ -113.4 =    -7.0941 +j   -16.401
------------
69            1           17.869 /_   66.6 =     7.0943 +j    16.401

ELEMENT = "Line.L70"
69            1           10.714 /_ -113.4 =    -4.2558 +j   -9.8325
------------
70            1           10.714 /_   66.6 =      4.256 +j    9.8325

ELEMENT = "Line.L71"
70            1            7.141 /_ -113.4 =    -2.8371 +j   -6.5532
------------
71            1           7.1411 /_   66.6 =     2.8374 +j    6.5532

ELEMENT = "Line.L72"
72            3           55.198 /_   60.1 =     27.551 +j    47.831
------------
73            3           55.198 /_ -119.9 =    -27.551 +j   -47.831

ELEMENT = "Line.L73"
72            1           59.296 /_  -56.8 =     32.477 +j   -49.611
72            2           129.28 /_ -136.2 =     -93.29 +j   -89.496
72            3           90.127 /_  125.4 =    -52.169 +j    73.494
------------
76            1           59.296 /_  123.2 =    -32.477 +j    49.611
76            2           129.28 /_   43.8 =     93.291 +j    89.495
76            3           90.127 /_  -54.6 =     52.168 +j   -73.494

ELEMENT = "Line.L74"
73            3           37.317 /_   60.0 =     18.634 +j    32.332
------------
74            3           37.317 /_ -120.0 =    -18.635 +j   -32.332

ELEMENT = "Line.L75"
74            3            17.93 /_   60.0 =     8.9557 +j    15.533
------------
75            3            17.93 /_ -120.0 =    -8.9566 +j   -15.533

ELEMENT = "Line.L76"
76            1           28.511 /_  -24.1 =     26.025 +j   -11.644
76            2           79.619 /_  -92.6 =    -3.6451 +j   -79.536
76            3            78.44 /_  152.6 =    -69.638 +j    36.102
------------
77            1           28.511 /_  155.9 =    -26.024 +j    11.644
77            2           79.618 /_   87.4 =     3.6457 +j    79.535
77            3           78.439 /_  -27.4 =     69.637 +j   -36.102

ELEMENT = "Line.L77"
76            1           12.787 /_  -79.8 =     2.2574 +j   -12.586
76            2           57.003 /_ -165.1 =    -55.087 +j   -14.655
76            3           21.104 /_  127.7 =    -12.894 +j    16.707
------------
86            1           12.787 /_  100.2 =    -2.2564 +j    12.586
86            2           57.004 /_   14.9 =     55.088 +j    14.654
86            3           21.102 /_  -52.3 =     12.892 +j   -16.707

ELEMENT = "Line.L78"
77            1           28.511 /_  -24.1 =     26.024 +j   -11.644
77            2           82.352 /_  -80.1 =     14.203 +j   -81.118
77            3           78.439 /_  152.6 =    -69.637 +j    36.102
------------
78            1           28.511 /_  155.9 =    -26.024 +j    11.645
78            2           82.351 /_   99.9 =    -14.203 +j    81.117
78            3           78.438 /_  -27.4 =     69.636 +j   -36.102

ELEMENT = "Line.L79"
78            1            7.135 /_ -113.7 =     -2.865 +j   -6.5345
78            2       0.00063522 /_  -60.6 =  0.00031155 +j -0.00055357
78            3       0.00077286 /_  168.7 =  -0.00075779 +j 0.00015187
------------
79            1           7.1352 /_   66.3 =     2.8654 +j    6.5346
79            2      1.5461E-011 /_  -61.9 =  7.276E-012 +j -1.3642E-011
79            3      8.1348E-012 /_   26.6 =  7.276E-012 +j 3.638E-012

ELEMENT = "Line.L80"
78            1           29.338 /_  -10.0 =     28.889 +j     -5.11
78            2           82.351 /_  -80.1 =     14.202 +j   -81.117
78            3           78.438 /_  152.6 =    -69.636 +j    36.102
------------
80            1           29.337 /_  170.0 =    -28.888 +j    5.1101
80            2           82.349 /_   99.9 =    -14.202 +j    81.116
80            3           78.436 /_  -27.4 =     69.634 +j   -36.101

ELEMENT = "Line.L81"
80            1           29.337 /_  -10.0 =     28.888 +j   -5.1101
80            2           88.752 /_  -68.8 =     32.088 +j   -82.748
80            3           78.436 /_  152.6 =    -69.634 +j    36.101
------------
81            1           29.337 /_  170.0 =    -28.888 +j    5.1102
81            2           88.752 /_  111.2 =    -32.088 +j    82.748
81            3           78.435 /_  -27.4 =     69.633 +j   -36.101

ELEMENT = "Line.L82"
81            1           29.337 /_  -10.0 =     28.888 +j   -5.1102
81            2           88.752 /_  -68.8 =     32.088 +j   -82.748
81            3           84.026 /_  171.1 =    -83.014 +j        13
------------
82            1           29.336 /_  170.0 =    -28.888 +j    5.1103
82            2           88.751 /_  111.2 =    -32.087 +j    82.747
82            3           84.025 /_   -8.9 =     83.013 +j       -13

ELEMENT = "Line.L83"
81            3           26.697 /_   59.9 =     13.381 +j    23.101
------------
84            3           26.697 /_ -120.1 =    -13.382 +j   -23.101

ELEMENT = "Line.L84"
82            1           31.811 /_    2.5 =      31.78 +j    1.4022
82            2           88.751 /_  -68.8 =     32.087 +j   -82.747
82            3           84.025 /_  171.1 =    -83.013 +j        13
------------
83            1           31.811 /_ -177.5 =     -31.78 +j   -1.4021
83            2            88.75 /_  111.2 =    -32.087 +j    82.747
83            3           84.024 /_   -8.9 =     83.013 +j       -13

ELEMENT = "Line.L85"
84            3           17.805 /_   59.9 =     8.9266 +j    15.405
------------
85            3           17.805 /_ -120.1 =    -8.9277 +j   -15.405

ELEMENT = "Line.L86"
86            1           12.787 /_  -79.8 =     2.2564 +j   -12.586
86            2           48.709 /_ -161.5 =    -46.194 +j    -15.45
86            3           21.102 /_  127.7 =    -12.892 +j    16.707
------------
87            1           12.787 /_  100.2 =    -2.2556 +j    12.586
87            2            48.71 /_   18.5 =     46.195 +j    15.449
87            3           21.101 /_  -52.3 =     12.891 +j   -16.706

ELEMENT = "Line.L87"
87            1           7.9334 /_  -50.2 =      5.078 +j   -6.0952
------------
88            1           7.9333 /_  129.8 =    -5.0779 +j    6.0953

ELEMENT = "Line.L88"
87            1           7.0782 /_ -113.5 =    -2.8224 +j   -6.4912
87            2            33.16 /_ -149.0 =    -28.427 +j   -17.073
87            3           21.101 /_  127.7 =    -12.891 +j    16.706
------------
89            1           7.0785 /_   66.5 =     2.8228 +j    6.4913
89            2            33.16 /_   31.0 =     28.427 +j    17.072
89            3           21.101 /_  -52.3 =      12.89 +j   -16.706

ELEMENT = "Line.L89"
89            2           21.558 /_ -119.7 =     -10.69 +j   -18.721
------------
90            2           21.557 /_   60.3 =      10.69 +j     18.72

...