test/data/dist/ieee123/ieee123_no_regs_no_sw_FaultStudy.Txt
FAULT STUDY REPORT

ALL-Node Fault Currents

Bus             Node 1  X/R        Node 2  X/R        Node 3  X/R   ...  (Amps)

"SOURCEBUS",     13701,   6.2,      13701,   6.2,      13701,   6.2
"150",           7828,   4.5,       7822,   5.0,       7824,   4.8
"1",             6767,   3.4,       6864,   4.2,       6740,   4.0
"2",             5523,   2.9
"3",             5222,   2.6
"7",             6137,   2.9,       6286,   3.8,       6096,   3.6
"4",             4585,   2.3
"5",             4257,   2.1
"6",             3715,   1.9
"8",             5777,   2.7,       5951,   3.6,       5729,   3.4
"12",            4395,   2.5
"9",             4319,   2.4
"13",            5305,   2.5,       5509,   3.3,       5254,   3.2
"14",            3439,   1.9
"34",            4090,   2.4
"18",            4386,   2.4,       4424,   3.0,       4251,   2.7
"11",            3065,   1.8
"10",            3064,   1.8
"15",            3876,   2.3
"16",            3231,   1.9
"17",            3266,   2.0
"19",            3026,   2.1
"21",            4118,   2.3,       4119,   3.0,       3970,   2.6
"20",            2654,   1.9
"22",            2588,   2.0
"23",            3919,   2.3,       3895,   2.9,       3763,   2.5
"24",            2381,   2.0
"25",            3721,   2.3,       3675,   2.9,       3558,   2.4
"26",            3109,   4.9,       3129,   1.5
"28",            3589,   2.3,       3529,   2.9,       3422,   2.4
"27",            2943,   5.0,       2962,   1.5
"31",            2318,   2.2
"33",            2010,   2.0
"29",            3407,   2.3,       3332,   2.9,       3237,   2.3
"30",            3215,   2.3,       3127,   2.8,       3044,   2.3
"250",           3115,   2.3,       3021,   2.8,       2944,   2.2
"32",            2114,   2.1
"35",            4005,   2.3,       4085,   2.8,       3935,   2.7
"36",            3220,   1.5,       3228,   5.5
"40",            3792,   2.2,       3897,   2.8,       3732,   2.7
"37",            2319,   2.1
"38",            2431,   2.2
"39",            2196,   2.0
"41",            2541,   2.1
"42",            3601,   2.2,       3726,   2.7,       3548,   2.6
"43",            2328,   2.0
"44",            3461,   2.1,       3598,   2.7,       3414,   2.6
"45",            2387,   2.1
"47",            3300,   2.1,       3451,   2.7,       3259,   2.6
"46",            2165,   2.0
"48",            3206,   2.1,       3361,   2.6,       3180,   2.6
"49",            3145,   2.1,       3304,   2.6,       3130,   2.6
"50",            3003,   2.1,       3168,   2.5,       3010,   2.6
"51",            2873,   2.1,       3043,   2.5,       2898,   2.6
"151",           2644,   2.1,       2820,   2.4,       2698,   2.7
"52",            4762,   2.3,       4999,   3.1,       4715,   3.0
"53",            4529,   2.2,       4778,   3.0,       4484,   2.9
"54",            4394,   2.1,       4649,   2.9,       4352,   2.9
"55",            4111,   2.1,       4380,   2.9,       4077,   2.9
"57",            4043,   2.1,       4276,   2.7,       4062,   2.8
"56",            3862,   2.0,       4140,   2.8,       3835,   2.9
"58",            2897,   2.1
"60",            3454,   2.1,       3648,   2.4,       3555,   2.6
"59",            2636,   2.0
"61",            3135,   2.0,       3307,   2.4,       3188,   2.5
"62",            3251,   1.8,       3455,   2.1,       3362,   2.3
"63",            3119,   1.7,       3327,   1.9,       3235,   2.1
"64",            2876,   1.5,       3089,   1.7,       3000,   1.8
"65",            2619,   1.3,       2829,   1.5,       2749,   1.6
"66",            2446,   1.2,       2651,   1.4,       2578,   1.5
"67",            3251,   2.0,       3401,   2.3,       3342,   2.5
"68",            2240,   1.9
"72",            3089,   2.0,       3234,   2.2,       3200,   2.4
"97",            3106,   2.1,       3248,   2.3,       3213,   2.5
"69",            2059,   1.8
"70",            1876,   1.7
"71",            1744,   1.6
"73",            2115,   1.9
"76",            2981,   2.0,       3122,   2.2,       3102,   2.4
"74",            1916,   1.8
"75",            1727,   1.7
"77",            2801,   2.1,       2906,   2.2,       2909,   2.3
"86",            2657,   2.1,       2784,   2.1,       2805,   2.4
"78",            2760,   2.1,       2857,   2.1,       2865,   2.3
"79",            2673,   2.1,       2753,   2.1,       2771,   2.3
"80",            2578,   2.1,       2643,   2.1,       2671,   2.2
"81",            2517,   2.1,       2571,   2.1,       2607,   2.2
"82",            2434,   2.1,       2475,   2.1,       2519,   2.2
"84",            1525,   1.8
"83",            2357,   2.1,       2386,   2.1,       2437,   2.2
"85",            1383,   1.7
"87",            2500,   2.1,       2595,   2.1,       2630,   2.3
"88",            1679,   1.9
"89",            2413,   2.1,       2491,   2.0,       2533,   2.3
"90",            1639,   2.0
"91",            2346,   2.1,       2412,   2.0,       2460,   2.3
"92",            1557,   1.9
"93",            2283,   2.2,       2338,   2.0,       2390,   2.2
"94",            1476,   1.9
"95",            2204,   2.2,       2246,   2.0,       2304,   2.2
"96",            1494,   2.0
"98",            2958,   2.1,       3094,   2.2,       3081,   2.4
"99",            2700,   2.1,       2825,   2.1,       2846,   2.4
"100",           2578,   2.1,       2696,   2.1,       2732,   2.4
"450",           2300,   2.1,       2405,   2.0,       2468,   2.4
"101",           2972,   2.1,       3108,   2.2,       3093,   2.4
"102",           2064,   2.0
"105",           2838,   2.1,       2967,   2.2,       2970,   2.4
"103",           1887,   1.8
"104",           1589,   1.6
"106",           1984,   2.0
"108",           2695,   2.1,       2814,   2.1,       2836,   2.4
"107",           1714,   1.8
"109",           1721,   1.8
"300",           2326,   2.1,       2430,   2.0,       2490,   2.4
"110",           1602,   1.8
"111",           1409,   1.6
"112",           1557,   1.7
"113",           1390,   1.6
"114",           1302,   1.6


ONE-Node to ground Faults

                                      pu Node Voltages (L-N Volts if no base)
Bus         Node  Amps         Node 1     Node 2     Node 3    ...

"SOURCEBUS"    1        10948          0.000      1.149      1.080
"SOURCEBUS"    2        10951          1.080      0.000      1.149
"SOURCEBUS"    3        10950          1.149      1.080      0.000
"150"          1         7873          0.000      1.050      1.038
"150"          2         7855          1.027      0.000      1.043
"150"          3         7875          1.033      1.043      0.000
"1"            1         6253          0.000      1.084      1.084
"1"            2         6290          1.078      0.000      1.065
"1"            3         6269          1.046      1.098      0.000
"2"            2         5523          0.000
"3"            3         5222          0.000
"7"            1         5413          0.000      1.105      1.106
"7"            2         5476          1.101      0.000      1.079
"7"            3         5435          1.053      1.125      0.000
"4"            3         4585          0.000
"5"            3         4257          0.000
"6"            3         3715          0.000
"8"            1         4969          0.000      1.116      1.116
"8"            2         5044          1.112      0.000      1.087
"8"            3         4993          1.057      1.139      0.000
"12"           2         4395          0.000
"9"            1         4319          0.000
"13"           1         4422          0.000      1.130      1.127
"13"           2         4510          1.124      0.000      1.096
"13"           3         4452          1.061      1.154      0.000
"14"           1         3439          0.000
"34"           3         4090          0.000
"18"           1         3383          0.000      1.154      1.155
"18"           2         3450          1.139      0.000      1.117
"18"           3         3386          1.103      1.173      0.000
"11"           1         3065          0.000
"10"           1         3064          0.000
"15"           3         3876          0.000
"16"           3         3231          0.000
"17"           3         3266          0.000
"19"           1         3026          0.000
"21"           1         3102          0.000      1.164      1.163
"21"           2         3164          1.145      0.000      1.126
"21"           3         3104          1.119      1.179      0.000
"20"           1         2654          0.000
"22"           2         2588          0.000
"23"           1         2902          0.000      1.171      1.168
"23"           2         2960          1.149      0.000      1.132
"23"           3         2902          1.130      1.184      0.000
"24"           3         2381          0.000
"25"           1         2709          0.000      1.179      1.174
"25"           2         2763          1.152      0.000      1.138
"25"           3         2708          1.140      1.188      0.000
"26"           1         2491          0.000      1.178
"26"           3         2495          1.146      0.000
"28"           1         2583          0.000      1.183      1.178
"28"           2         2636          1.155      0.000      1.143
"28"           3         2581          1.148      1.191      0.000
"27"           1         2342          0.000      1.181
"27"           3         2350          1.150      0.000
"31"           3         2318          0.000
"33"           1         2010          0.000
"29"           1         2414          0.000      1.190      1.183
"29"           2         2464          1.158      0.000      1.148
"29"           3         2412          1.158      1.195      0.000
"30"           1         2241          0.000      1.196      1.188
"30"           2         2290          1.162      0.000      1.155
"30"           3         2240          1.169      1.199      0.000
"250"          1         2153          0.000      1.200      1.191
"250"          2         2201          1.164      0.000      1.158
"250"          3         2152          1.174      1.201      0.000
"32"           3         2114          0.000
"35"           1         3044          0.000      1.161      1.161
"35"           2         3117          1.144      0.000      1.136
"35"           3         3052          1.109      1.181      0.000
"36"           1         2571          0.000      1.172
"36"           2         2646          1.151      0.000
"40"           1         2852          0.000      1.168      1.164
"40"           2         2929          1.148      0.000      1.142
"40"           3         2865          1.113      1.184      0.000
"37"           1         2319          0.000
"38"           2         2431          0.000
"39"           2         2196          0.000
"41"           3         2541          0.000
"42"           1         2682          0.000      1.175      1.166
"42"           2         2762          1.151      0.000      1.147
"42"           3         2699          1.116      1.187      0.000
"43"           2         2328          0.000
"44"           1         2560          0.000      1.180      1.168
"44"           2         2641          1.154      0.000      1.151
"44"           3         2580          1.118      1.190      0.000
"45"           1         2387          0.000
"47"           1         2422          0.000      1.185      1.169
"47"           2         2504          1.156      0.000      1.155
"47"           3         2445          1.121      1.192      0.000
"46"           1         2165          0.000
"48"           1         2344          0.000      1.187      1.170
"48"           2         2426          1.158      0.000      1.160
"48"           3         2368          1.123      1.194      0.000
"49"           1         2295          0.000      1.188      1.171
"49"           2         2376          1.159      0.000      1.164
"49"           3         2318          1.125      1.196      0.000
"50"           1         2179          0.000      1.192      1.174
"50"           2         2258          1.161      0.000      1.172
"50"           3         2203          1.129      1.200      0.000
"51"           1         2075          0.000      1.196      1.176
"51"           2         2152          1.163      0.000      1.180
"51"           3         2097          1.133      1.203      0.000
"151"          1         1892          0.000      1.202      1.180
"151"          2         1966          1.167      0.000      1.194
"151"          3         1914          1.140      1.210      0.000
"52"           1         3824          0.000      1.150      1.141
"52"           2         3925          1.138      0.000      1.113
"52"           3         3862          1.073      1.171      0.000
"53"           1         3580          0.000      1.158      1.146
"53"           2         3686          1.144      0.000      1.119
"53"           3         3622          1.077      1.177      0.000
"54"           1         3443          0.000      1.162      1.149
"54"           2         3551          1.147      0.000      1.123
"54"           3         3487          1.080      1.181      0.000
"55"           1         3164          0.000      1.176      1.155
"55"           2         3273          1.154      0.000      1.136
"55"           3         3210          1.091      1.187      0.000
"57"           1         3114          0.000      1.164      1.158
"57"           2         3209          1.151      0.000      1.137
"57"           3         3161          1.090      1.191      0.000
"56"           1         2927          0.000      1.187      1.160
"56"           2         3036          1.160      0.000      1.147
"56"           3         2974          1.100      1.193      0.000
"58"           2         2897          0.000
"60"           1         2586          0.000      1.166      1.172
"60"           2         2658          1.157      0.000      1.157
"60"           3         2634          1.104      1.208      0.000
"59"           2         2636          0.000
"61"           1         2286          0.000      1.186      1.178
"61"           2         2350          1.164      0.000      1.167
"61"           3         2328          1.121      1.211      0.000
"62"           1         2418          0.000      1.167      1.175
"62"           2         2496          1.161      0.000      1.159
"62"           3         2468          1.105      1.212      0.000
"63"           1         2311          0.000      1.168      1.177
"63"           2         2390          1.163      0.000      1.160
"63"           3         2360          1.106      1.214      0.000
"64"           1         2114          0.000      1.170      1.181
"64"           2         2196          1.168      0.000      1.163
"64"           3         2164          1.109      1.217      0.000
"65"           1         1910          0.000      1.174      1.183
"65"           2         1989          1.172      0.000      1.167
"65"           3         1958          1.112      1.221      0.000
"66"           1         1775          0.000      1.177      1.184
"66"           2         1852          1.174      0.000      1.170
"66"           3         1823          1.115      1.224      0.000
"67"           1         2392          0.000      1.168      1.179
"67"           2         2461          1.159      0.000      1.161
"67"           3         2438          1.114      1.212      0.000
"68"           1         2240          0.000
"72"           1         2251          0.000      1.170      1.183
"72"           2         2317          1.163      0.000      1.169
"72"           3         2298          1.122      1.217      0.000
"97"           1         2271          0.000      1.170      1.180
"97"           2         2337          1.160      0.000      1.168
"97"           3         2316          1.119      1.215      0.000
"69"           1         2059          0.000
"70"           1         1876          0.000
"71"           1         1744          0.000
"73"           3         2115          0.000
"76"           1         2158          0.000      1.172      1.187
"76"           2         2222          1.165      0.000      1.176
"76"           3         2205          1.127      1.221      0.000
"74"           3         1916          0.000
"75"           3         1727          0.000
"77"           1         1990          0.000      1.178      1.195
"77"           2         2053          1.170      0.000      1.184
"77"           3         2037          1.142      1.227      0.000
"86"           1         1893          0.000      1.177      1.194
"86"           2         1954          1.168      0.000      1.195
"86"           3         1940          1.140      1.226      0.000
"78"           1         1951          0.000      1.180      1.197
"78"           2         2014          1.171      0.000      1.186
"78"           3         1998          1.146      1.228      0.000
"79"           1         1875          0.000      1.182      1.199
"79"           2         1937          1.172      0.000      1.189
"79"           3         1921          1.152      1.229      0.000
"80"           1         1787          0.000      1.187      1.205
"80"           2         1848          1.177      0.000      1.194
"80"           3         1834          1.162      1.235      0.000
"81"           1         1733          0.000      1.189      1.208
"81"           2         1793          1.180      0.000      1.197
"81"           3         1779          1.167      1.238      0.000
"82"           1         1661          0.000      1.193      1.212
"82"           2         1719          1.182      0.000      1.202
"82"           3         1706          1.175      1.241      0.000
"84"           3         1525          0.000
"83"           1         1594          0.000      1.197      1.216
"83"           2         1651          1.185      0.000      1.206
"83"           3         1638          1.182      1.245      0.000
"85"           3         1383          0.000
"87"           1         1753          0.000      1.179      1.199
"87"           2         1814          1.169      0.000      1.200
"87"           3         1800          1.151      1.227      0.000
"88"           1         1679          0.000
"89"           1         1677          0.000      1.181      1.202
"89"           2         1737          1.170      0.000      1.203
"89"           3         1724          1.158      1.228      0.000
"90"           2         1639          0.000
"91"           1         1621          0.000      1.182      1.204
"91"           2         1679          1.170      0.000      1.206
"91"           3         1667          1.162      1.229      0.000
...

Adjacent Node-Node Faults

                                        pu Node Voltages (L-N Volts if no base)
Bus          Node-Node      Amps        Node 1     Node 2     Node 3    ...

"SOURCEBUS"   1   2       11865         0.500      0.500      0.999
"SOURCEBUS"   2   3       11867         0.999      0.500      0.500
"150"         1   2        6740         0.521      0.520      1.043
"150"         2   3        6788         1.032      0.523      0.523
"1"           1   2        5917         0.518      0.517      1.036
"1"           2   3        5890         1.018      0.520      0.520
"7"           1   2        5415         0.515      0.515      1.032
"7"           2   3        5353         1.008      0.518      0.518
"8"           1   2        5123         0.513      0.513      1.030
"8"           2   3        5045         1.001      0.517      0.517
"13"          1   2        4736         0.512      0.511      1.026
"13"          2   3        4644         0.992      0.515      0.515
"18"          1   2        3824         0.507      0.507      1.012
"18"          2   3        3725         0.989      0.513      0.512
"21"          1   2        3566         0.507      0.507      1.008
"21"          2   3        3469         0.990      0.512      0.512
"23"          1   2        3375         0.507      0.507      1.005
"23"          2   3        3281         0.991      0.512      0.512
"25"          1   2        3188         0.507      0.507      1.003
"25"          2   3        3096         0.992      0.512      0.512
"26"          1   3        2973         0.498      0.498
"28"          1   2        3063         0.507      0.507      1.001
"28"          2   3        2974         0.993      0.512      0.512
"27"          1   3        2817         0.498      0.498
"29"          1   2        2894         0.507      0.507      0.999
"29"          2   3        2808         0.994      0.512      0.512
"30"          1   2        2719         0.508      0.507      0.996
"30"          2   3        2636         0.996      0.512      0.512
"250"         1   2        2627         0.508      0.508      0.995
"250"         2   3        2546         0.997      0.511      0.511
"35"          1   2        3512         0.507      0.507      1.015
"35"          2   3        3460         0.986      0.510      0.510
"36"          1   2        3040         0.509      0.509
"40"          1   2        3347         0.508      0.507      1.014
"40"          2   3        3288         0.982      0.509      0.509
"42"          1   2        3196         0.508      0.508      1.014
"42"          2   3        3132         0.979      0.508      0.508
"44"          1   2        3084         0.508      0.508      1.014
"44"          2   3        3017         0.976      0.508      0.508
"47"          1   2        2955         0.508      0.508      1.013
"47"          2   3        2885         0.974      0.507      0.507
"48"          1   2        2874         0.509      0.509      1.014
"48"          2   3        2816         0.973      0.506      0.506
"49"          1   2        2822         0.509      0.509      1.015
"49"          2   3        2773         0.973      0.506      0.506
"50"          1   2        2700         0.510      0.510      1.017
"50"          2   3        2668         0.973      0.506      0.506
"51"          1   2        2588         0.510      0.510      1.019
"51"          2   3        2571         0.972      0.505      0.505
"151"         1   2        2389         0.511      0.511      1.023
"151"         2   3        2396         0.972      0.504      0.504
"52"          1   2        4289         0.511      0.511      1.024
"52"          2   3        4184         0.984      0.513      0.513
"53"          1   2        4095         0.511      0.511      1.023
"53"          2   3        3986         0.981      0.512      0.512
"54"          1   2        3982         0.511      0.511      1.022
"54"          2   3        3872         0.979      0.511      0.511
"55"          1   2        3746         0.512      0.512      1.023
"55"          2   3        3633         0.976      0.511      0.510
"57"          1   2        3646         0.510      0.510      1.022
"57"          2   3        3608         0.977      0.511      0.511
"56"          1   2        3537         0.514      0.514      1.024
"56"          2   3        3421         0.974      0.510      0.510
"60"          1   2        3086         0.508      0.508      1.021
"60"          2   3        3146         0.972      0.510      0.510
"61"          1   2        2808         0.508      0.508      1.018
"61"          2   3        2819         0.969      0.510      0.510
"62"          1   2        2917         0.509      0.509      1.020
"62"          2   3        2976         0.970      0.508      0.508
"63"          1   2        2805         0.509      0.509      1.020
"63"          2   3        2864         0.968      0.507      0.507
"64"          1   2        2599         0.510      0.510      1.020
"64"          2   3        2657         0.966      0.505      0.505
"65"          1   2        2376         0.512      0.512      1.019
"65"          2   3        2432         0.963      0.502      0.502
"66"          1   2        2225         0.514      0.514      1.019
"66"          2   3        2280         0.962      0.501      0.501
"67"          1   2        2879         0.508      0.508      1.016
"67"          2   3        2947         0.973      0.510      0.510
"72"          1   2        2731         0.509      0.509      1.017
"72"          2   3        2818         0.974      0.510      0.510
"97"          1   2        2745         0.508      0.508      1.017
"97"          2   3        2830         0.973      0.510      0.510
"76"          1   2        2632         0.509      0.509      1.018
"76"          2   3        2731         0.974      0.510      0.510
"77"          1   2        2452         0.510      0.510      1.016
"77"          2   3        2553         0.979      0.511      0.511
"86"          1   2        2338         0.509      0.509      1.022
"86"          2   3        2464         0.977      0.510      0.510
"78"          1   2        2410         0.511      0.510      1.015
"78"          2   3        2512         0.981      0.511      0.511
"79"          1   2        2324         0.511      0.511      1.014
"79"          2   3        2426         0.982      0.512      0.511
"80"          1   2        2231         0.512      0.512      1.013
"80"          2   3        2335         0.986      0.512      0.512
"81"          1   2        2171         0.513      0.513      1.012
"81"          2   3        2275         0.988      0.513      0.513
"82"          1   2        2091         0.514      0.514      1.012
"82"          2   3        2195         0.991      0.514      0.514
"83"          1   2        2016         0.515      0.515      1.011
"83"          2   3        2120         0.994      0.514      0.514
"87"          1   2        2181         0.510      0.509      1.019
"87"          2   3        2303         0.981      0.510      0.510
"89"          1   2        2095         0.510      0.510      1.017
"89"          2   3        2215         0.983      0.510      0.510
"91"          1   2        2030         0.510      0.510      1.016
"91"          2   3        2148         0.984      0.510      0.510
"93"          1   2        1968         0.510      0.510      1.015
"93"          2   3        2085         0.986      0.510      0.510
"95"          1   2        1891         0.511      0.511      1.013
"95"          2   3        2006         0.988      0.510      0.510
"98"          1   2        2609         0.508      0.508      1.018
"98"          2   3        2711         0.973      0.511      0.511
"99"          1   2        2375         0.509      0.509      1.020
"99"          2   3        2500         0.975      0.511      0.511
"100"         1   2        2264         0.509      0.509      1.021
"100"         2   3        2398         0.976      0.511      0.511
"450"         1   2        2012         0.510      0.510      1.024
"450"         2   3        2161         0.978      0.512      0.512
"101"         1   2        2622         0.508      0.507      1.018
"101"         2   3        2722         0.973      0.511      0.511
"105"         1   2        2499         0.507      0.507      1.020
"105"         2   3        2611         0.972      0.511      0.511
"108"         1   2        2367         0.506      0.506      1.022
"108"         2   3        2490         0.972      0.512      0.512
"300"         1   2        2034         0.507      0.507      1.026
"300"         2   3        2181         0.975      0.513      0.513
