test/data/dist/ieee123/ieee123_no_regs_no_sw_Power_seq_MVA.txt

SYMMETRICAL COMPONENT POWERS BY CIRCUIT ELEMENT (first 3 phases)                                     Excess Power

Element           Term    P1(MW)   Q1(Mvar)       P2         Q2      P0      Q0       P_Norm      Q_Norm     P_Emerg    Q_Emerg

"Vsource.SOURCE"   1       -3.6       -1.6        0.0        0.0    -0.0     0.0
"Vsource.SOURCE"   2        0.0        0.0        0.0        0.0     0.0     0.0
"Transformer.SUB"  1        3.6        1.6       -0.0       -0.0    -0.0     0.0        0.0        0.0        0.0        0.0
"Transformer.SUB"  2       -3.6       -1.4        0.0        0.0     0.0     0.0
"Line.L115"        1        3.6        1.4       -0.0       -0.0    -0.0    -0.0        1.3        0.5        0.2        0.1
"Line.L115"        2       -3.6       -1.3        0.0        0.0     0.0     0.0
"Line.L1"          1        0.0        0.0        0.0        0.0     0.0     0.0        0.0        0.0        0.0        0.0
"Line.L1"          2        0.0        0.0        0.0        0.0     0.0     0.0
"Line.L2"          1        0.0        0.0        0.0        0.0     0.0     0.0        0.0        0.0        0.0        0.0
"Line.L2"          2        0.0        0.0        0.0        0.0     0.0     0.0
"Line.L3"          1        3.4        1.2       -0.0       -0.0    -0.0    -0.0        1.2        0.4        0.1        0.0
"Line.L3"          2       -3.4       -1.2        0.0        0.0     0.0     0.0
"Line.L4"          1        0.0        0.0        0.0        0.0     0.0     0.0        0.0        0.0        0.0        0.0
"Line.L4"          2        0.0        0.0        0.0        0.0     0.0     0.0
"Line.L5"          1        0.0        0.0        0.0        0.0     0.0     0.0        0.0        0.0        0.0        0.0
"Line.L5"          2        0.0        0.0        0.0        0.0     0.0     0.0
"Line.L6"          1        0.0        0.0        0.0        0.0     0.0     0.0        0.0        0.0        0.0        0.0
"Line.L6"          2        0.0        0.0        0.0        0.0     0.0     0.0
"Line.L7"          1        3.4        1.2       -0.0       -0.0    -0.0    -0.0        1.1        0.4        0.0        0.0
"Line.L7"          2       -3.4       -1.2        0.0        0.0     0.0     0.0
"Line.L8"          1        0.0        0.0        0.0        0.0     0.0     0.0        0.0        0.0        0.0        0.0
"Line.L8"          2        0.0        0.0        0.0        0.0     0.0     0.0
"Line.L9"          1        0.0        0.0        0.0        0.0     0.0     0.0        0.0        0.0        0.0        0.0
"Line.L9"          2        0.0        0.0        0.0        0.0     0.0     0.0
"Line.L10"         1        3.2        1.1       -0.0       -0.0    -0.0    -0.0        0.9        0.3        0.0        0.0
"Line.L10"         2       -3.2       -1.1        0.0        0.0     0.0     0.0
"Line.L11"         1        0.0        0.0        0.0        0.0     0.0     0.0        0.0        0.0        0.0        0.0
"Line.L11"         2        0.0        0.0        0.0        0.0     0.0     0.0
"Line.L12"         1        0.0        0.0        0.0        0.0     0.0     0.0        0.0        0.0        0.0        0.0
"Line.L12"         2        0.0        0.0        0.0        0.0     0.0     0.0
"Line.L13"         1        1.1        0.7       -0.0       -0.0    -0.0    -0.0        0.0        0.0        0.0        0.0
"Line.L13"         2       -1.1       -0.7        0.0        0.0     0.0     0.0
"Line.L14"         1        0.0        0.0        0.0        0.0     0.0     0.0        0.0        0.0        0.0        0.0
"Line.L14"         2        0.0        0.0        0.0        0.0     0.0     0.0
"Line.L15"         1        0.0        0.0        0.0        0.0     0.0     0.0        0.0        0.0        0.0        0.0
"Line.L15"         2        0.0        0.0        0.0        0.0     0.0     0.0
"Line.L16"         1        0.0        0.0        0.0        0.0     0.0     0.0        0.0        0.0        0.0        0.0
"Line.L16"         2        0.0        0.0        0.0        0.0     0.0     0.0
"Line.L17"         1        0.0        0.0        0.0        0.0     0.0     0.0        0.0        0.0        0.0        0.0
"Line.L17"         2        0.0        0.0        0.0        0.0     0.0     0.0
"Line.L18"         1        0.0        0.0        0.0        0.0     0.0     0.0        0.0        0.0        0.0        0.0
"Line.L18"         2        0.0        0.0        0.0        0.0     0.0     0.0
"Line.L19"         1        0.3        0.1        0.0       -0.0    -0.0    -0.0        0.0        0.0        0.0        0.0
"Line.L19"         2       -0.3       -0.1       -0.0        0.0     0.0     0.0
"Line.L20"         1        0.0        0.0        0.0        0.0     0.0     0.0        0.0        0.0        0.0        0.0
"Line.L20"         2        0.0        0.0        0.0        0.0     0.0     0.0
"Line.L21"         1        0.0        0.0        0.0        0.0     0.0     0.0        0.0        0.0        0.0        0.0
"Line.L21"         2        0.0        0.0        0.0        0.0     0.0     0.0
"Line.L22"         1        0.2        0.1        0.0       -0.0    -0.0    -0.0        0.0        0.0        0.0        0.0
"Line.L22"         2       -0.2       -0.1       -0.0        0.0     0.0     0.0
"Line.L23"         1        0.0        0.0        0.0        0.0     0.0     0.0        0.0        0.0        0.0        0.0
"Line.L23"         2        0.0        0.0        0.0        0.0     0.0     0.0
"Line.L24"         1        0.2        0.1       -0.0       -0.0    -0.0    -0.0        0.0        0.0        0.0        0.0
"Line.L24"         2       -0.2       -0.1        0.0        0.0     0.0     0.0
"Line.L25"         1        0.0        0.0        0.0        0.0     0.0     0.0        0.0        0.0        0.0        0.0
"Line.L25"         2        0.0        0.0        0.0        0.0     0.0     0.0
"Line.L26"         1        0.1        0.1       -0.0       -0.0    -0.0    -0.0        0.0        0.0        0.0        0.0
"Line.L26"         2       -0.1       -0.1        0.0        0.0     0.0     0.0
"Line.L27"         1        0.0        0.0        0.0        0.0     0.0     0.0        0.0        0.0        0.0        0.0
"Line.L27"         2        0.0        0.0        0.0        0.0     0.0     0.0
"Line.L28"         1        0.0        0.0        0.0        0.0     0.0     0.0        0.0        0.0        0.0        0.0
"Line.L28"         2        0.0        0.0        0.0        0.0     0.0     0.0
"Line.L29"         1        0.0        0.0        0.0        0.0     0.0     0.0        0.0        0.0        0.0        0.0
"Line.L29"         2        0.0        0.0        0.0        0.0     0.0     0.0
"Line.L30"         1        0.1        0.0        0.0       -0.0    -0.0    -0.0        0.0        0.0        0.0        0.0
"Line.L30"         2       -0.1       -0.0       -0.0        0.0     0.0     0.0
"Line.L31"         1        0.0        0.0        0.0       -0.0    -0.0     0.0        0.0        0.0        0.0        0.0
"Line.L31"         2       -0.0       -0.0       -0.0        0.0     0.0    -0.0
"Line.L32"         1        0.0       -0.0       -0.0        0.0     0.0    -0.0        0.0        0.0        0.0        0.0
"Line.L32"         2       -0.0       -0.0       -0.0       -0.0     0.0     0.0
"Line.L33"         1        0.0        0.0        0.0        0.0     0.0     0.0        0.0        0.0        0.0        0.0
"Line.L33"         2        0.0        0.0        0.0        0.0     0.0     0.0
"Line.L34"         1        0.0        0.0        0.0        0.0     0.0     0.0        0.0        0.0        0.0        0.0
"Line.L34"         2        0.0        0.0        0.0        0.0     0.0     0.0
"Line.L35"         1        0.0        0.0        0.0        0.0     0.0     0.0        0.0        0.0        0.0        0.0
"Line.L35"         2        0.0        0.0        0.0        0.0     0.0     0.0
"Line.L36"         1        0.6        0.4       -0.0       -0.0     0.0    -0.0        0.0        0.0        0.0        0.0
"Line.L36"         2       -0.6       -0.4        0.0        0.0    -0.0     0.0
"Line.L37"         1        0.0        0.0        0.0        0.0     0.0     0.0        0.0        0.0        0.0        0.0
"Line.L37"         2        0.0        0.0        0.0        0.0     0.0     0.0
"Line.L38"         1        0.0        0.0        0.0        0.0     0.0     0.0        0.0        0.0        0.0        0.0
"Line.L38"         2        0.0        0.0        0.0        0.0     0.0     0.0
"Line.L39"         1        0.0        0.0        0.0        0.0     0.0     0.0        0.0        0.0        0.0        0.0
"Line.L39"         2        0.0        0.0        0.0        0.0     0.0     0.0
"Line.L40"         1        0.0        0.0        0.0        0.0     0.0     0.0        0.0        0.0        0.0        0.0
"Line.L40"         2        0.0        0.0        0.0        0.0     0.0     0.0
"Line.L41"         1        0.6        0.4       -0.0        0.0     0.0    -0.0        0.0        0.0        0.0        0.0
"Line.L41"         2       -0.6       -0.4        0.0       -0.0    -0.0     0.0
"Line.L42"         1        0.0        0.0        0.0        0.0     0.0     0.0        0.0        0.0        0.0        0.0
"Line.L42"         2        0.0        0.0        0.0        0.0     0.0     0.0
"Line.L43"         1        0.6        0.4       -0.0       -0.0     0.0    -0.0        0.0        0.0        0.0        0.0
"Line.L43"         2       -0.6       -0.4        0.0        0.0    -0.0     0.0
"Line.L44"         1        0.0        0.0        0.0        0.0     0.0     0.0        0.0        0.0        0.0        0.0
"Line.L44"         2        0.0        0.0        0.0        0.0     0.0     0.0
"Line.L45"         1        0.5        0.4        0.0        0.0     0.0     0.0        0.0        0.0        0.0        0.0
"Line.L45"         2       -0.5       -0.4       -0.0       -0.0    -0.0    -0.0
"Line.L46"         1        0.0        0.0        0.0        0.0     0.0     0.0        0.0        0.0        0.0        0.0
"Line.L46"         2        0.0        0.0        0.0        0.0     0.0     0.0
"Line.L47"         1        0.2        0.2        0.0        0.0     0.0     0.0        0.0        0.0        0.0        0.0
"Line.L47"         2       -0.2       -0.2       -0.0       -0.0    -0.0    -0.0
"Line.L48"         1        0.2        0.1        0.0        0.0     0.0     0.0        0.0        0.0        0.0        0.0
"Line.L48"         2       -0.2       -0.1       -0.0       -0.0    -0.0    -0.0
"Line.L49"         1        0.1        0.0        0.0       -0.0    -0.0     0.0        0.0        0.0        0.0        0.0
"Line.L49"         2       -0.1       -0.0       -0.0        0.0     0.0    -0.0
"Line.L50"         1        0.0        0.0       -0.0       -0.0    -0.0    -0.0        0.0        0.0        0.0        0.0
"Line.L50"         2       -0.0       -0.0        0.0        0.0     0.0     0.0
"Line.L51"         1        0.0       -0.0       -0.0       -0.0    -0.0    -0.0        0.0        0.0        0.0        0.0
"Line.L51"         2       -0.0       -0.0        0.0        0.0    -0.0     0.0
"Line.L52"         1        2.0        0.3       -0.0       -0.0    -0.0    -0.0        0.0        0.0        0.0        0.0
"Line.L52"         2       -2.0       -0.3        0.0        0.0     0.0     0.0
"Line.L53"         1        1.9        0.3       -0.0       -0.0    -0.0    -0.0        0.0        0.0        0.0        0.0
"Line.L53"         2       -1.9       -0.3        0.0        0.0     0.0     0.0
"Line.L54"         1        0.0        0.0       -0.0        0.0     0.0    -0.0        0.0        0.0        0.0        0.0
"Line.L54"         2       -0.0       -0.0        0.0       -0.0    -0.0     0.0
"Line.L55"         1        1.9        0.3       -0.0       -0.0    -0.0    -0.0        0.0        0.0        0.0        0.0
"Line.L55"         2       -1.9       -0.3        0.0        0.0     0.0     0.0
"Line.L56"         1        0.0        0.0       -0.0        0.0     0.0     0.0        0.0        0.0        0.0        0.0
"Line.L56"         2       -0.0       -0.0        0.0       -0.0    -0.0    -0.0
"Line.L57"         1        0.0        0.0        0.0        0.0     0.0     0.0        0.0        0.0        0.0        0.0
"Line.L57"         2        0.0        0.0        0.0        0.0     0.0     0.0
"Line.L58"         1        1.8        0.3       -0.0       -0.0    -0.0    -0.0        0.0        0.0        0.0        0.0
"Line.L58"         2       -1.8       -0.3        0.0        0.0     0.0     0.0
"Line.L59"         1        0.0        0.0        0.0        0.0     0.0     0.0        0.0        0.0        0.0        0.0
"Line.L59"         2        0.0        0.0        0.0        0.0     0.0     0.0
"Line.L60"         1       -0.0       -0.0        0.0        0.0     0.0    -0.0        0.0        0.0        0.0        0.0
"Line.L60"         2       -0.0       -0.0       -0.0       -0.0     0.0    -0.0
"Line.L61"         1        0.4        0.2        0.0       -0.0    -0.0     0.0        0.0        0.0        0.0        0.0
"Line.L61"         2       -0.4       -0.2       -0.0        0.0     0.0    -0.0
"Line.L62"         1        0.3        0.2        0.0       -0.0     0.0     0.0        0.0        0.0        0.0        0.0
"Line.L62"         2       -0.3       -0.2       -0.0        0.0    -0.0    -0.0
"Line.L63"         1        0.3        0.2        0.0        0.0     0.0     0.0        0.0        0.0        0.0        0.0
"Line.L63"         2       -0.3       -0.2       -0.0       -0.0    -0.0    -0.0
"Line.L64"         1        0.2        0.1        0.0       -0.0    -0.0     0.0        0.0        0.0        0.0        0.0
"Line.L64"         2       -0.2       -0.1       -0.0        0.0     0.0    -0.0
"Line.L65"         1        0.1        0.0        0.0       -0.0    -0.0     0.0        0.0        0.0        0.0        0.0
"Line.L65"         2       -0.1       -0.0       -0.0        0.0     0.0    -0.0
"Line.L66"         1        0.0        0.0        0.0        0.0     0.0     0.0        0.0        0.0        0.0        0.0
"Line.L66"         2        0.0        0.0        0.0        0.0     0.0     0.0
"Line.L67"         1        0.9       -0.3        0.0        0.0    -0.0     0.0        0.0        0.0        0.0        0.0
"Line.L67"         2       -0.9        0.3       -0.0       -0.0     0.0    -0.0
"Line.L68"         1        0.4        0.2       -0.0       -0.0    -0.0    -0.0        0.0        0.0        0.0        0.0
"Line.L68"         2       -0.4       -0.2        0.0        0.0     0.0     0.0
"Line.L69"         1        0.0        0.0        0.0        0.0     0.0     0.0        0.0        0.0        0.0        0.0
"Line.L69"         2        0.0        0.0        0.0        0.0     0.0     0.0
"Line.L70"         1        0.0        0.0        0.0        0.0     0.0     0.0        0.0        0.0        0.0        0.0
"Line.L70"         2        0.0        0.0        0.0        0.0     0.0     0.0
"Line.L71"         1        0.0        0.0        0.0        0.0     0.0     0.0        0.0        0.0        0.0        0.0
"Line.L71"         2        0.0        0.0        0.0        0.0     0.0     0.0
"Line.L72"         1        0.0        0.0        0.0        0.0     0.0     0.0        0.0        0.0        0.0        0.0
"Line.L72"         2        0.0        0.0        0.0        0.0     0.0     0.0
"Line.L73"         1        0.7       -0.3       -0.0        0.0     0.0    -0.0        0.0        0.0        0.0        0.0
"Line.L73"         2       -0.7        0.3        0.0       -0.0    -0.0     0.0
"Line.L74"         1        0.0        0.0        0.0        0.0     0.0     0.0        0.0        0.0        0.0        0.0
"Line.L74"         2        0.0        0.0        0.0        0.0     0.0     0.0
"Line.L75"         1        0.0        0.0        0.0        0.0     0.0     0.0        0.0        0.0        0.0        0.0
"Line.L75"         2        0.0        0.0        0.0        0.0     0.0     0.0
"Line.L76"         1        0.2       -0.5        0.0       -0.0     0.0    -0.0        0.0        0.0        0.0        0.0
"Line.L76"         2       -0.2        0.5       -0.0        0.0    -0.0     0.0
"Line.L77"         1        0.3       -0.0       -0.0        0.0     0.0    -0.0        0.0        0.0        0.0        0.0
"Line.L77"         2       -0.3        0.0        0.0       -0.0    -0.0     0.0
"Line.L78"         1        0.2       -0.5        0.0       -0.0    -0.0    -0.0        0.0        0.0        0.0        0.0
"Line.L78"         2       -0.2        0.5       -0.0        0.0     0.0     0.0
"Line.L79"         1        0.0        0.0       -0.0       -0.0    -0.0    -0.0        0.0        0.0        0.0        0.0
"Line.L79"         2       -0.0       -0.0        0.0        0.0     0.0     0.0
"Line.L80"         1        0.2       -0.5        0.0       -0.0    -0.0     0.0        0.0        0.0        0.0        0.0
"Line.L80"         2       -0.2        0.5       -0.0        0.0     0.0    -0.0
"Line.L81"         1        0.1       -0.5        0.0       -0.0    -0.0    -0.0        0.0        0.0        0.0        0.0
"Line.L81"         2       -0.1        0.5       -0.0        0.0     0.0     0.0
"Line.L82"         1        0.1       -0.6       -0.0       -0.0    -0.0    -0.0        0.0        0.0        0.0        0.0
"Line.L82"         2       -0.1        0.6        0.0        0.0     0.0     0.0
"Line.L83"         1        0.0        0.0        0.0        0.0     0.0     0.0        0.0        0.0        0.0        0.0
"Line.L83"         2        0.0        0.0        0.0        0.0     0.0     0.0
"Line.L84"         1        0.0       -0.6        0.0       -0.0    -0.0    -0.0        0.0        0.0        0.0        0.0
"Line.L84"         2       -0.0        0.6       -0.0        0.0     0.0     0.0
"Line.L85"         1        0.0        0.0        0.0        0.0     0.0     0.0        0.0        0.0        0.0        0.0
"Line.L85"         2        0.0        0.0        0.0        0.0     0.0     0.0
"Line.L86"         1        0.2       -0.0       -0.0        0.0     0.0    -0.0        0.0        0.0        0.0        0.0
"Line.L86"         2       -0.2        0.0        0.0       -0.0    -0.0     0.0
"Line.L87"         1        0.0        0.0        0.0        0.0     0.0     0.0        0.0        0.0        0.0        0.0
"Line.L87"         2        0.0        0.0        0.0        0.0     0.0     0.0
"Line.L88"         1        0.2       -0.0        0.0       -0.0     0.0    -0.0        0.0        0.0        0.0        0.0
"Line.L88"         2       -0.2        0.0       -0.0        0.0    -0.0     0.0
"Line.L89"         1        0.0        0.0        0.0        0.0     0.0     0.0        0.0        0.0        0.0        0.0
"Line.L89"         2        0.0        0.0        0.0        0.0     0.0     0.0
"Line.L90"         1        0.1        0.0       -0.0       -0.0     0.0     0.0        0.0        0.0        0.0        0.0
"Line.L90"         2       -0.1       -0.0        0.0        0.0    -0.0    -0.0
"Line.L91"         1        0.0        0.0        0.0        0.0     0.0     0.0        0.0        0.0        0.0        0.0
"Line.L91"         2        0.0        0.0        0.0        0.0     0.0     0.0
"Line.L92"         1        0.1        0.0       -0.0        0.0     0.0    -0.0        0.0        0.0        0.0        0.0
"Line.L92"         2       -0.1       -0.0        0.0       -0.0    -0.0     0.0
"Line.L93"         1        0.0        0.0        0.0        0.0     0.0     0.0        0.0        0.0        0.0        0.0
"Line.L93"         2        0.0        0.0        0.0        0.0     0.0     0.0
"Line.L94"         1        0.0        0.0       -0.0        0.0     0.0     0.0        0.0        0.0        0.0        0.0
"Line.L94"         2       -0.0       -0.0        0.0       -0.0    -0.0    -0.0
"Line.L95"         1        0.0        0.0        0.0        0.0     0.0     0.0        0.0        0.0        0.0        0.0
"Line.L95"         2        0.0        0.0        0.0        0.0     0.0     0.0
"Line.L96"         1        0.1        0.1        0.0       -0.0     0.0    -0.0        0.0        0.0        0.0        0.0
"Line.L96"         2       -0.1       -0.1       -0.0        0.0    -0.0     0.0
"Line.L97"         1        0.1        0.0        0.0        0.0     0.0     0.0        0.0        0.0        0.0        0.0
"Line.L97"         2       -0.1       -0.0       -0.0       -0.0    -0.0    -0.0
"Line.L98"         1        0.0        0.0        0.0       -0.0    -0.0     0.0        0.0        0.0        0.0        0.0
"Line.L98"         2       -0.0       -0.0       -0.0        0.0     0.0    -0.0
"Line.L99"         1        0.0       -0.0       -0.0       -0.0    -0.0    -0.0        0.0        0.0        0.0        0.0
"Line.L99"         2        0.0        0.0        0.0       -0.0     0.0    -0.0
...
"Capacitor.C83"    1       -0.0       -0.6        0.0       -0.0     0.0    -0.0        0.0        0.0        0.0        0.0
"Capacitor.C83"    2        0.0        0.0        0.0        0.0     0.0     0.0
"Capacitor.C88A"   1        0.0        0.0        0.0        0.0     0.0     0.0        0.0        0.0        0.0        0.0
"Capacitor.C88A"   2        0.0        0.0        0.0        0.0     0.0     0.0
"Capacitor.C90B"   1        0.0        0.0        0.0        0.0     0.0     0.0        0.0        0.0        0.0        0.0
"Capacitor.C90B"   2        0.0        0.0        0.0        0.0     0.0     0.0
"Capacitor.C92C"   1        0.0        0.0        0.0        0.0     0.0     0.0        0.0        0.0        0.0        0.0
"Capacitor.C92C"   2        0.0        0.0        0.0        0.0     0.0     0.0
"Load.S1A"         1        0.0        0.0        0.0        0.0     0.0     0.0
"Load.S2B"         1        0.0        0.0        0.0        0.0     0.0     0.0
"Load.S4C"         1        0.0        0.0        0.0        0.0     0.0     0.0
"Load.S5C"         1        0.0        0.0        0.0        0.0     0.0     0.0
"Load.S6C"         1        0.0        0.0        0.0        0.0     0.0     0.0
"Load.S7A"         1        0.0        0.0        0.0        0.0     0.0     0.0
"Load.S9A"         1        0.0        0.0        0.0        0.0     0.0     0.0
"Load.S10A"        1        0.0        0.0        0.0        0.0     0.0     0.0
"Load.S11A"        1        0.0        0.0        0.0        0.0     0.0     0.0
"Load.S12B"        1        0.0        0.0        0.0        0.0     0.0     0.0
"Load.S16C"        1        0.0        0.0        0.0        0.0     0.0     0.0
"Load.S17C"        1        0.0        0.0        0.0        0.0     0.0     0.0
"Load.S19A"        1        0.0        0.0        0.0        0.0     0.0     0.0
"Load.S20A"        1        0.0        0.0        0.0        0.0     0.0     0.0
"Load.S22B"        1        0.0        0.0        0.0        0.0     0.0     0.0
"Load.S24C"        1        0.0        0.0        0.0        0.0     0.0     0.0
"Load.S28A"        1        0.0        0.0        0.0        0.0     0.0     0.0
"Load.S29A"        1        0.0        0.0        0.0        0.0     0.0     0.0
"Load.S30C"        1        0.0        0.0        0.0        0.0     0.0     0.0
"Load.S31C"        1        0.0        0.0        0.0        0.0     0.0     0.0
"Load.S32C"        1        0.0        0.0        0.0        0.0     0.0     0.0
"Load.S33A"        1        0.0        0.0        0.0        0.0     0.0     0.0
"Load.S34C"        1        0.0        0.0        0.0        0.0     0.0     0.0
"Load.S35A"        1        0.0        0.0        0.0        0.0     0.0     0.0
"Load.S37A"        1        0.0        0.0        0.0        0.0     0.0     0.0
"Load.S38B"        1        0.0        0.0        0.0        0.0     0.0     0.0
"Load.S39B"        1        0.0        0.0        0.0        0.0     0.0     0.0
"Load.S41C"        1        0.0        0.0        0.0        0.0     0.0     0.0
"Load.S42A"        1        0.0        0.0        0.0        0.0     0.0     0.0
"Load.S43B"        1        0.0        0.0        0.0        0.0     0.0     0.0
"Load.S45A"        1        0.0        0.0        0.0        0.0     0.0     0.0
"Load.S46A"        1        0.0        0.0        0.0        0.0     0.0     0.0
"Load.S47"         1        0.1        0.1        0.0       -0.0     0.0    -0.0
"Load.S48"         1        0.2        0.2        0.0        0.0     0.0     0.0
"Load.S49A"        1        0.0        0.0        0.0        0.0     0.0     0.0
"Load.S49B"        1        0.0        0.0        0.0        0.0     0.0     0.0
"Load.S49C"        1        0.0        0.0        0.0        0.0     0.0     0.0
"Load.S50C"        1        0.0        0.0        0.0        0.0     0.0     0.0
"Load.S51A"        1        0.0        0.0        0.0        0.0     0.0     0.0
"Load.S52A"        1        0.0        0.0        0.0        0.0     0.0     0.0
"Load.S53A"        1        0.0        0.0        0.0        0.0     0.0     0.0
"Load.S55A"        1        0.0        0.0        0.0        0.0     0.0     0.0
"Load.S56B"        1        0.0        0.0        0.0        0.0     0.0     0.0
"Load.S58B"        1        0.0        0.0        0.0        0.0     0.0     0.0
"Load.S59B"        1        0.0        0.0        0.0        0.0     0.0     0.0
"Load.S60A"        1        0.0        0.0        0.0        0.0     0.0     0.0
"Load.S62C"        1        0.0        0.0        0.0        0.0     0.0     0.0
"Load.S63A"        1        0.0        0.0        0.0        0.0     0.0     0.0
"Load.S64B"        1        0.0        0.0        0.0        0.0     0.0     0.0
"Load.S65A"        1        0.0        0.0        0.0        0.0     0.0     0.0
"Load.S65B"        1        0.0        0.0        0.0        0.0     0.0     0.0
"Load.S65C"        1        0.0        0.0        0.0        0.0     0.0     0.0
"Load.S66C"        1        0.0        0.0        0.0        0.0     0.0     0.0
"Load.S68A"        1        0.0        0.0        0.0        0.0     0.0     0.0
"Load.S69A"        1        0.0        0.0        0.0        0.0     0.0     0.0
"Load.S70A"        1        0.0        0.0        0.0        0.0     0.0     0.0
"Load.S71A"        1        0.0        0.0        0.0        0.0     0.0     0.0
"Load.S73C"        1        0.0        0.0        0.0        0.0     0.0     0.0
"Load.S74C"        1        0.0        0.0        0.0        0.0     0.0     0.0
"Load.S75C"        1        0.0        0.0        0.0        0.0     0.0     0.0
"Load.S76A"        1        0.0        0.0        0.0        0.0     0.0     0.0
"Load.S76B"        1        0.0        0.0        0.0        0.0     0.0     0.0
"Load.S76C"        1        0.0        0.0        0.0        0.0     0.0     0.0
"Load.S77B"        1        0.0        0.0        0.0        0.0     0.0     0.0
"Load.S79A"        1        0.0        0.0        0.0        0.0     0.0     0.0
"Load.S80B"        1        0.0        0.0        0.0        0.0     0.0     0.0
"Load.S82A"        1        0.0        0.0        0.0        0.0     0.0     0.0
"Load.S83C"        1        0.0        0.0        0.0        0.0     0.0     0.0
"Load.S84C"        1        0.0        0.0        0.0        0.0     0.0     0.0
"Load.S85C"        1        0.0        0.0        0.0        0.0     0.0     0.0
"Load.S86B"        1        0.0        0.0        0.0        0.0     0.0     0.0
"Load.S87B"        1        0.0        0.0        0.0        0.0     0.0     0.0
"Load.S88A"        1        0.0        0.0        0.0        0.0     0.0     0.0
"Load.S90B"        1        0.0        0.0        0.0        0.0     0.0     0.0
"Load.S92C"        1        0.0        0.0        0.0        0.0     0.0     0.0
"Load.S94A"        1        0.0        0.0        0.0        0.0     0.0     0.0
"Load.S95B"        1        0.0        0.0        0.0        0.0     0.0     0.0
"Load.S96B"        1        0.0        0.0        0.0        0.0     0.0     0.0
"Load.S98A"        1        0.0        0.0        0.0        0.0     0.0     0.0
"Load.S99B"        1        0.0        0.0        0.0        0.0     0.0     0.0
"Load.S100C"       1        0.0        0.0        0.0        0.0     0.0     0.0
"Load.S102C"       1        0.0        0.0        0.0        0.0     0.0     0.0
"Load.S103C"       1        0.0        0.0        0.0        0.0     0.0     0.0
"Load.S104C"       1        0.0        0.0        0.0        0.0     0.0     0.0
"Load.S106B"       1        0.0        0.0        0.0        0.0     0.0     0.0
"Load.S107B"       1        0.0        0.0        0.0        0.0     0.0     0.0
"Load.S109A"       1        0.0        0.0        0.0        0.0     0.0     0.0
"Load.S111A"       1        0.0        0.0        0.0        0.0     0.0     0.0
"Load.S112A"       1        0.0        0.0        0.0        0.0     0.0     0.0
"Load.S113A"       1        0.0        0.0        0.0        0.0     0.0     0.0
"Load.S114A"       1        0.0        0.0        0.0        0.0     0.0     0.0

Total Circuit Losses =    0.1 +j    0.5
